Version 4
SHEET 1 1272 740
WIRE -320 -48 -352 -48
WIRE -208 -48 -320 -48
WIRE -80 -48 -128 -48
WIRE 112 -48 0 -48
WIRE 544 -48 112 -48
WIRE 112 32 112 -48
WIRE 544 32 544 -48
WIRE 784 32 784 -48
WIRE 32 48 0 48
WIRE 64 48 32 48
WIRE 624 48 592 48
WIRE 656 48 624 48
WIRE 256 128 208 128
WIRE 384 128 320 128
WIRE -352 160 -352 -48
WIRE 112 176 112 112
WIRE 176 176 112 176
WIRE 208 176 208 128
WIRE 208 176 176 176
WIRE 384 176 384 128
WIRE 448 176 384 176
WIRE 544 176 544 112
WIRE 544 176 448 176
WIRE 784 192 784 112
WIRE 208 224 208 176
WIRE 256 224 208 224
WIRE 384 224 384 176
WIRE 384 224 336 224
WIRE 112 288 112 176
WIRE 544 288 544 176
WIRE 32 304 0 304
WIRE 64 304 32 304
WIRE 624 304 592 304
WIRE 656 304 624 304
WIRE -352 416 -352 240
WIRE 112 416 112 368
WIRE 112 416 -352 416
WIRE 256 416 112 416
WIRE 512 416 512 400
WIRE 512 416 256 416
WIRE 544 416 544 368
WIRE 544 416 512 416
WIRE 256 432 256 416
WIRE 512 432 512 416
WIRE 784 432 784 256
WIRE 784 432 512 432
WIRE 288 576 224 576
WIRE 304 576 288 576
WIRE 144 592 48 592
WIRE -176 608 -272 608
WIRE 48 608 48 592
WIRE 48 608 -48 608
WIRE 256 608 224 608
WIRE -272 640 -272 608
WIRE 256 640 256 608
WIRE 288 640 256 640
WIRE 304 640 288 640
FLAG 256 432 0
FLAG 176 176 VLp
FLAG 448 176 VLn
FLAG -320 -48 vin
FLAG 32 48 c1
FLAG 624 304 c1
FLAG 624 48 c2
FLAG 32 304 c2
FLAG 288 640 c2
FLAG 288 576 c1
FLAG 64 96 0
FLAG 64 352 0
FLAG 592 352 0
FLAG 592 96 0
FLAG -272 720 0
SYMBOL sw 112 128 M180
SYMATTR InstName S1
SYMATTR Value mysw
SYMBOL sw 544 128 R180
SYMATTR InstName S2
SYMATTR Value mysw
SYMBOL cap 320 112 R90
WINDOW 0 0 32 VBottom 2
WINDOW 3 32 32 VTop 2
SYMATTR InstName C1
SYMATTR Value 1m
SYMBOL res 352 208 R90
WINDOW 0 0 56 VBottom 2
WINDOW 3 32 56 VTop 2
SYMATTR InstName R1
SYMATTR Value 1k
SYMBOL sw 112 384 M180
SYMATTR InstName S3
SYMATTR Value mysw
SYMBOL sw 544 384 R180
SYMATTR InstName S4
SYMATTR Value mysw
SYMBOL ind 16 -64 R90
WINDOW 0 5 56 VBottom 2
WINDOW 3 32 56 VTop 2
SYMATTR InstName L1
SYMATTR Value 1m
SYMBOL res -112 -64 R90
WINDOW 0 0 56 VBottom 2
WINDOW 3 32 56 VTop 2
SYMATTR InstName R2
SYMATTR Value .002
SYMBOL voltage -352 144 R0
WINDOW 123 0 0 Left 0
WINDOW 39 0 0 Left 0
SYMATTR InstName V1
SYMATTR Value 10
SYMBOL PWM -112 608 R0
SYMATTR InstName U1
SYMATTR SpiceLine VM=1V, fs=1k
SYMATTR SpiceLine2 Dmin=0.001, Dmax=0.999, Voffset=0
SYMBOL dead_time 176 592 R0
SYMATTR InstName U2
SYMATTR SpiceLine Td=1ns
SYMBOL voltage -272 624 R0
WINDOW 123 0 0 Left 0
WINDOW 39 0 0 Left 0
SYMATTR InstName V2
SYMATTR Value PULSE(0 1 0 500m 500m 1m)
SYMBOL cap 768 192 R0
SYMATTR InstName C2
SYMATTR Value 100n
SYMBOL res 768 16 R0
SYMATTR InstName R3
SYMATTR Value 100k
TEXT 384 496 Left 2 !.model mysw SW(Ron=1u Roff=1Meg Vt=.5 Vh=0)
TEXT 432 536 Left 2 !.tran 500m
TEXT -144 -152 Left 2 !.include /home/erik/Documents/Education/powerelectronics/AdvancedConverterControlTechqiues/week1/switching.lib
