Version 4
SHEET 1 880 836
WIRE -1008 48 -1040 48
WIRE -816 48 -1008 48
WIRE -144 48 -816 48
WIRE -816 128 -816 48
WIRE -144 128 -144 48
WIRE -896 144 -928 144
WIRE -864 144 -896 144
WIRE -64 144 -96 144
WIRE -32 144 -64 144
WIRE -432 224 -480 224
WIRE -304 224 -368 224
WIRE -1040 256 -1040 48
WIRE -816 272 -816 208
WIRE -752 272 -816 272
WIRE -720 272 -752 272
WIRE -624 272 -640 272
WIRE -480 272 -480 224
WIRE -480 272 -544 272
WIRE -304 272 -304 224
WIRE -240 272 -304 272
WIRE -144 272 -144 208
WIRE -144 272 -240 272
WIRE -480 320 -480 272
WIRE -432 320 -480 320
WIRE -304 320 -304 272
WIRE -304 320 -352 320
WIRE -816 384 -816 272
WIRE -144 384 -144 272
WIRE -896 400 -928 400
WIRE -864 400 -896 400
WIRE -64 400 -96 400
WIRE -32 400 -64 400
WIRE -1040 512 -1040 336
WIRE -816 512 -816 464
WIRE -816 512 -1040 512
WIRE -432 512 -816 512
WIRE -144 512 -144 464
WIRE -144 512 -432 512
WIRE -432 528 -432 512
WIRE -400 672 -464 672
WIRE -384 672 -400 672
WIRE -544 688 -640 688
WIRE -864 704 -960 704
WIRE -640 704 -640 688
WIRE -640 704 -736 704
WIRE -432 704 -464 704
WIRE -960 736 -960 704
WIRE -432 736 -432 704
WIRE -400 736 -432 736
WIRE -384 736 -400 736
FLAG -432 528 0
FLAG -752 272 VLp
FLAG -240 272 VLn
FLAG -1008 48 vin
FLAG -896 144 c1
FLAG -64 400 c1
FLAG -64 144 c2
FLAG -896 400 c2
FLAG -400 736 c2
FLAG -400 672 c1
FLAG -864 192 0
FLAG -864 448 0
FLAG -96 448 0
FLAG -96 192 0
FLAG -960 816 0
SYMBOL sw -816 224 M180
SYMATTR InstName S1
SYMATTR Value mysw
SYMBOL sw -144 224 R180
SYMATTR InstName S2
SYMATTR Value mysw
SYMBOL cap -432 240 R270
WINDOW 0 32 32 VTop 2
WINDOW 3 0 32 VBottom 2
SYMATTR InstName C1
SYMATTR Value 5µ
SYMBOL res -448 336 R270
WINDOW 0 32 56 VTop 2
WINDOW 3 0 56 VBottom 2
SYMATTR InstName R1
SYMATTR Value 10
SYMBOL sw -816 480 M180
SYMATTR InstName S3
SYMATTR Value mysw
SYMBOL sw -144 480 R180
SYMATTR InstName S4
SYMATTR Value mysw
SYMBOL ind -640 288 R270
WINDOW 0 32 56 VTop 2
WINDOW 3 5 56 VBottom 2
SYMATTR InstName L1
SYMATTR Value 400µ
SYMBOL res -624 256 R90
WINDOW 0 0 56 VBottom 2
WINDOW 3 32 56 VTop 2
SYMATTR InstName R2
SYMATTR Value .002
SYMBOL voltage -1040 240 R0
WINDOW 123 0 0 Left 0
WINDOW 39 0 0 Left 0
SYMATTR InstName V1
SYMATTR Value 10
SYMBOL PWM -800 704 R0
SYMATTR InstName U1
SYMATTR SpiceLine VM=1V, fs={freq}
SYMATTR SpiceLine2 Dmin=0.001, Dmax=0.999, Voffset=0
SYMBOL dead_time -512 688 R0
SYMATTR InstName U2
SYMATTR SpiceLine Td=1ns
SYMBOL voltage -960 720 R0
WINDOW 123 0 0 Left 0
WINDOW 39 0 0 Left 0
SYMATTR InstName V2
SYMATTR Value .9
TEXT -304 592 Left 2 !.model mysw SW(Ron=1u Roff=1Meg Vt=.5 Vh=0)
TEXT -256 632 Left 2 !.tran {100*1/freq}
TEXT -832 -56 Left 2 !.include /home/erik/Documents/Education/powerelectronics/AdvancedConverterControlTechniques/Libraries/switching.lib
TEXT -216 680 Left 2 !.param freq=500e3
