Version 4
SHEET 1 1032 680
WIRE -48 -208 -80 -208
WIRE 64 -208 -48 -208
WIRE 192 -208 144 -208
WIRE 256 -208 192 -208
WIRE 288 -208 256 -208
WIRE 304 -208 288 -208
WIRE 256 -144 256 -208
WIRE 192 -32 192 -208
WIRE -80 0 -80 -208
WIRE 256 32 256 -80
WIRE -80 256 -80 80
WIRE 64 256 -80 256
WIRE 192 256 192 32
WIRE 192 256 64 256
WIRE 256 256 256 112
WIRE 256 256 192 256
FLAG -48 -208 vin
FLAG 288 -208 vo
FLAG 64 256 0
SYMBOL ind 48 -192 R270
WINDOW 0 32 56 VTop 2
WINDOW 3 5 56 VBottom 2
SYMATTR InstName L1
SYMATTR Value 1µ
SYMATTR SpiceLine Rser=1m Rpar=1Meg
SYMBOL voltage -80 -16 R0
WINDOW 123 24 124 Left 2
WINDOW 39 0 0 Left 0
SYMATTR Value2 AC 1
SYMATTR InstName V1
SYMATTR Value 10
SYMBOL cap 176 -32 R0
SYMATTR InstName C2
SYMATTR Value 1µ
SYMBOL res 240 16 R0
SYMATTR InstName R2
SYMATTR Value .6
SYMBOL cap 240 -144 R0
SYMATTR InstName C3
SYMATTR Value 31µ
TEXT -72 -280 Left 2 !.ac dec 100 100 1Meg
