Version 4
SHEET 1 880 680
WIRE -896 80 -960 80
WIRE -800 80 -896 80
WIRE -656 80 -720 80
WIRE -608 80 -656 80
WIRE -544 80 -608 80
WIRE -400 80 -464 80
WIRE -320 80 -400 80
WIRE -272 80 -320 80
WIRE -400 144 -400 80
WIRE -272 144 -272 80
WIRE -960 160 -960 80
WIRE -816 176 -832 176
WIRE -784 176 -784 128
WIRE -784 176 -816 176
WIRE -736 176 -736 128
WIRE -656 176 -656 80
WIRE -560 176 -576 176
WIRE -528 176 -528 128
WIRE -528 176 -560 176
WIRE -480 176 -480 128
WIRE -960 320 -960 240
WIRE -960 320 -976 320
WIRE -768 320 -960 320
WIRE -656 320 -656 256
WIRE -656 320 -768 320
WIRE -400 320 -400 208
WIRE -400 320 -656 320
WIRE -272 320 -272 224
WIRE -272 320 -400 320
WIRE -768 368 -768 320
WIRE -352 464 -416 464
WIRE -336 464 -352 464
WIRE -816 480 -912 480
WIRE -496 480 -688 480
WIRE -912 496 -912 480
WIRE -384 496 -416 496
WIRE -384 528 -384 496
WIRE -352 528 -384 528
WIRE -336 528 -352 528
WIRE -912 592 -912 576
FLAG -816 176 c1
FLAG -560 176 c2
FLAG -352 528 c2
FLAG -352 464 c1
FLAG -912 592 0
FLAG -736 176 0
FLAG -480 176 0
FLAG -768 368 0
FLAG -320 80 Vc
FLAG -896 80 Vg
FLAG -608 80 sw
SYMBOL voltage -960 144 R0
WINDOW 123 0 0 Left 0
WINDOW 39 0 0 Left 0
SYMATTR InstName V1
SYMATTR Value 30
SYMBOL sw -704 80 M270
SYMATTR InstName S1
SYMATTR Value mysw
SYMBOL cap -416 144 R0
WINDOW 3 -52 92 Left 2
SYMATTR InstName C1
SYMATTR Value 12.5µ ic=0
SYMBOL res -256 240 R180
WINDOW 0 36 76 Left 2
WINDOW 3 36 40 Left 2
SYMATTR InstName R1
SYMATTR Value 4
SYMBOL sw -448 80 M270
SYMATTR InstName S2
SYMATTR Value mysw
SYMBOL ind -672 160 R0
SYMATTR InstName L1
SYMATTR Value 180µ
SYMATTR SpiceLine Rser=1m Rpar=100k
SYMBOL PWM -752 480 R0
SYMATTR InstName U1
SYMATTR SpiceLine VM=1V, fs={fs}
SYMATTR SpiceLine2 Dmin=0.001, Dmax=0.999, Voffset=0
SYMBOL dead_time -464 480 R0
SYMATTR InstName U2
SYMATTR SpiceLine Td=0
SYMBOL voltage -912 480 R0
WINDOW 123 0 0 Left 0
WINDOW 39 0 0 Left 0
SYMATTR InstName V2
SYMATTR Value PULSE(0 1 0 {1e3/fs} {1e3/fs} {10/fs})
TEXT -976 -88 Left 2 !.model mysw SW(Ron=1u Roff=1Meg Vt=.5 Vh=0)
TEXT -968 -56 Left 2 !.tran {1000/fs} uic
TEXT -976 -120 Left 2 !.lib /home/erik/Documents/Education/powerelectronics/AdvancedConverterControlTechniques/Libraries/switching.lib
TEXT -1008 -16 Left 2 !.param fs=40k
TEXT -896 664 Left 2 ;PULSE(0 1 0 {1e3/fs} {1e3/fs} {10/fs})
