Version 4
SHEET 1 880 772
WIRE -400 64 -624 64
WIRE 272 64 -400 64
WIRE -624 144 -624 64
WIRE -400 144 -400 64
WIRE 272 144 272 64
WIRE -480 160 -512 160
WIRE -448 160 -480 160
WIRE 352 160 320 160
WIRE 384 160 352 160
WIRE -48 240 -64 240
WIRE -16 240 -48 240
WIRE 112 240 48 240
WIRE -624 272 -624 144
WIRE -400 288 -400 224
WIRE -304 288 -400 288
WIRE -208 288 -304 288
WIRE -64 288 -64 240
WIRE -64 288 -128 288
WIRE 112 288 112 240
WIRE 176 288 112 288
WIRE 272 288 272 224
WIRE 272 288 176 288
WIRE -64 336 -64 288
WIRE -16 336 -64 336
WIRE 112 336 112 288
WIRE 112 336 64 336
WIRE -400 400 -400 288
WIRE 272 400 272 288
WIRE -480 416 -512 416
WIRE -448 416 -480 416
WIRE 352 416 320 416
WIRE 384 416 352 416
WIRE -624 528 -624 352
WIRE -400 528 -400 480
WIRE -400 528 -624 528
WIRE -16 528 -400 528
WIRE 272 528 272 480
WIRE 272 528 -16 528
WIRE -16 544 -16 528
WIRE 32 624 -32 624
WIRE 48 624 32 624
WIRE -432 640 -528 640
WIRE -224 640 -304 640
WIRE -112 640 -224 640
WIRE 0 656 -32 656
WIRE -528 672 -528 640
WIRE 0 688 0 656
WIRE 32 688 0 688
WIRE 48 688 32 688
FLAG -16 544 0
FLAG -304 288 VLp
FLAG 176 288 VLn
FLAG -624 144 vin
FLAG -480 160 c1
FLAG 352 416 c1
FLAG 352 160 c2
FLAG -480 416 c2
FLAG 32 688 c2
FLAG 32 624 c1
FLAG -448 208 0
FLAG -448 464 0
FLAG 320 464 0
FLAG 320 208 0
FLAG -528 752 0
FLAG -48 240 vcout
FLAG -224 640 duty
SYMBOL sw -400 240 M180
SYMATTR InstName S1
SYMATTR Value mysw
SYMBOL sw 272 240 R180
SYMATTR InstName S2
SYMATTR Value mysw
SYMBOL cap -16 256 R270
WINDOW 0 32 32 VTop 2
WINDOW 3 0 32 VBottom 2
SYMATTR InstName C1
SYMATTR Value .5µ
SYMBOL res -32 352 R270
WINDOW 0 32 56 VTop 2
WINDOW 3 0 56 VBottom 2
SYMATTR InstName R1
SYMATTR Value 10
SYMBOL sw -400 496 M180
SYMATTR InstName S3
SYMATTR Value mysw
SYMBOL sw 272 496 R180
SYMATTR InstName S4
SYMATTR Value mysw
SYMBOL ind -224 304 R270
WINDOW 0 32 56 VTop 2
WINDOW 3 5 56 VBottom 2
SYMATTR InstName L1
SYMATTR Value .08m
SYMBOL voltage -624 256 R0
WINDOW 123 0 0 Left 0
WINDOW 39 0 0 Left 0
SYMATTR InstName V1
SYMATTR Value 10
SYMBOL PWM -368 640 R0
SYMATTR InstName U1
SYMATTR SpiceLine VM=1V, fs={freq}
SYMATTR SpiceLine2 Dmin=0.001, Dmax=0.999, Voffset=0
SYMBOL dead_time -80 640 R0
SYMATTR InstName U2
SYMATTR SpiceLine Td={1n/freq}
SYMBOL voltage -528 656 R0
WINDOW 123 0 0 Left 0
WINDOW 39 0 0 Left 0
SYMATTR InstName V2
SYMATTR Value {duty}
TEXT -616 -184 Left 2 !.model mysw SW(Ron=1u Roff=1Meg Vt=.5 Vh=0)
TEXT -616 -136 Left 2 !.tran {21/freq} startup uic
TEXT -928 -216 Left 2 !.include /home/erik/Documents/Education/powerelectronics/AdvancedConverterControlTechniques/Libraries/switching.lib
TEXT -616 -160 Left 2 !.param freq=100e3
TEXT -616 -24 Left 2 !.meas TRAN M PARAM Vc1/V(vin)
TEXT -616 -112 Left 2 !.meas TRAN Vc1 AVG V(vcout, VLn) FROM 90u TO {90u + 10/freq}
TEXT -616 -56 Left 2 !.meas TRAN D AVG V(duty)/5 FROM 90u TO {90u+10/freq}
TEXT -400 728 Left 2 ;using switching.lib for PWM and U2
TEXT -640 16 Left 2 !.step param duty list .01 .2 .3 .4 .5 .6 .7 .8 .99
