Version 4
SHEET 1 1212 792
WIRE -656 -256 -688 -256
WIRE -544 -256 -656 -256
WIRE -416 -256 -464 -256
WIRE -352 -256 -416 -256
WIRE -304 -256 -352 -256
WIRE -160 -256 -304 -256
WIRE -32 -256 -160 -256
WIRE -352 -192 -352 -256
WIRE -160 -176 -160 -256
WIRE -32 -176 -32 -256
WIRE -240 -160 -272 -160
WIRE -208 -160 -240 -160
WIRE -416 -80 -416 -256
WIRE -688 -48 -688 -256
WIRE -160 -32 -160 -96
WIRE -32 -32 -32 -112
WIRE -32 -32 -160 -32
WIRE 48 -32 -32 -32
WIRE 208 -32 128 -32
WIRE 288 -32 208 -32
WIRE 368 -32 288 -32
WIRE -352 -16 -352 -128
WIRE 288 32 288 -32
WIRE 368 32 368 -32
WIRE -160 96 -160 -32
WIRE -688 208 -688 32
WIRE -416 208 -416 -16
WIRE -416 208 -688 208
WIRE -352 208 -352 64
WIRE -352 208 -416 208
WIRE -160 208 -160 160
WIRE -160 208 -352 208
WIRE 288 208 288 96
WIRE 288 208 -160 208
WIRE 368 208 368 112
WIRE 368 208 288 208
WIRE 288 224 288 208
WIRE -16 288 -80 288
WIRE 0 288 -16 288
WIRE -384 304 -480 304
WIRE -160 304 -256 304
WIRE -48 320 -80 320
WIRE -480 336 -480 304
WIRE -48 352 -48 320
WIRE -16 352 -48 352
WIRE 0 352 -16 352
FLAG 288 224 0
FLAG -32 -32 VLp
FLAG -656 -256 vin
FLAG -240 -160 c1
FLAG -16 352 c2
FLAG -16 288 c1
FLAG -208 -112 0
FLAG -480 416 0
FLAG 208 -32 VC2
FLAG -304 -256 VCf
SYMBOL sw -160 -80 M180
WINDOW 3 -115 59 Left 2
SYMATTR Value mysw
SYMATTR InstName S1
SYMBOL res 352 16 R0
SYMATTR InstName R1
SYMATTR Value 1
SYMBOL ind -560 -240 R270
WINDOW 0 32 56 VTop 2
WINDOW 3 5 56 VBottom 2
SYMATTR InstName Lf
SYMATTR Value 1µ ic=0
SYMATTR SpiceLine Rser=1m Rpar=1Meg
SYMBOL voltage -688 -64 R0
WINDOW 123 0 0 Left 0
WINDOW 39 0 0 Left 0
SYMATTR InstName V1
SYMATTR Value 10
SYMBOL PWM -320 304 R0
SYMATTR InstName U1
SYMATTR SpiceLine VM=1V, fs={freq}
SYMATTR SpiceLine2 Dmin=0.001, Dmax=0.999, Voffset=0
SYMBOL dead_time -128 304 R0
SYMATTR InstName U2
SYMATTR SpiceLine Td=1n
SYMBOL voltage -480 320 R0
WINDOW 123 0 0 Left 0
WINDOW 39 0 0 Left 0
SYMATTR InstName V2
SYMATTR Value .5
SYMBOL diode -16 -112 R180
WINDOW 0 24 64 Left 2
WINDOW 3 24 0 Left 2
SYMATTR InstName D1
SYMATTR Value myD
SYMBOL diode -144 160 R180
WINDOW 0 24 64 Left 2
WINDOW 3 24 0 Left 2
SYMATTR InstName D4
SYMATTR Value myD
SYMBOL cap 272 32 R0
SYMATTR InstName C1
SYMATTR Value 1µ ic=0
SYMBOL cap -432 -80 R0
SYMATTR InstName Cf
SYMATTR Value 1µ
SYMBOL ind 32 -16 R270
WINDOW 0 32 56 VTop 2
WINDOW 3 5 56 VBottom 2
SYMATTR InstName L1
SYMATTR Value 12.5µ ic=0
SYMBOL res -368 -32 R0
SYMATTR InstName Rd
SYMATTR Value .4
SYMBOL cap -368 -192 R0
SYMATTR InstName Cd
SYMATTR Value 31µ
TEXT -568 -408 Left 2 !.model mysw SW(Ron=1u Vt=.5 Vh=1m)
TEXT -576 -384 Left 2 !.tran {cycles*1/freq} startup uic
TEXT -568 -512 Left 2 ;.lib C:\\GitRepos\\PowerElectronics\\Libraries\\switching.lib
TEXT -576 -480 Left 2 !.param freq=500e3 cycles=50
TEXT 16 -448 Left 2 !.meas TRAN iLavg AVG I(Lf) FROM .9*{cycles}/{freq}
TEXT 16 -400 Left 2 !.meas TRAN DTs TRIG V(VLp)=5.1 TD=80u RISE=1 TARG V(VLp)=5.1 TD=80u FALL=1
TEXT 16 -376 Left 2 !.meas TRAN D PARAM DTs/Ts
TEXT 16 -328 Left 2 !.meas TRAN Vc AVG V(vc2) FROM 320u
TEXT 16 -424 Left 2 !.meas TRAN Ts TRIG V(VLp)=5.1 TD=320u RISE=1 TARG V(VLp)=5.1 TD=320u RISE=2
TEXT 16 -352 Left 2 !.meas TRAN iLpp PP I(L1) FROM 320u TO 322u
TEXT 16 -296 Left 2 !.meas TRAN Vg AVG V(vin) FROM 320u
TEXT 16 -272 Left 2 !.meas TRAN M PARAM Vc/Vg
TEXT -576 -432 Left 2 !.model myD D(Ron=1u Vfwd=.1)
TEXT 80 -152 Left 2 ;fc = 1/(2*pi*sqrt(LC))
TEXT 48 -128 Left 2 ;C = 1/((fc * 2* pi)^2*L)
TEXT -576 -456 Left 2 !.model myZ D(Vrev=60)
TEXT 16 -240 Left 2 ;.meas TRAN Rc PARAM {Rcrit}
TEXT 192 -192 Left 2 ;1/500kHz  = 2us
TEXT 56 -96 Left 2 ;L2  = (Vg-V)*DTs/(2 *delta_IL2) = (5*.5*2us/(2*.2) = 5*1e-6*2.5 = 12.5uH
TEXT 8 -480 Left 2 !.meas TRAN iLavg_ AVG I(Lf) FROM .6*cycles*1/freq
TEXT -576 -544 Left 2 !.lib /home/erik/GitRepos/PowerElectronics/Libraries/switching.lib
