Version 4
SHEET 1 880 872
WIRE -1056 -416 -1152 -416
WIRE -944 -416 -992 -416
WIRE -1152 -336 -1152 -416
WIRE -1120 -336 -1152 -336
WIRE -1008 -336 -1040 -336
WIRE -1008 -320 -1008 -336
WIRE -944 -320 -944 -416
WIRE -944 -320 -1008 -320
WIRE -928 -320 -944 -320
WIRE -816 -320 -864 -320
WIRE -1152 -304 -1152 -336
WIRE -1152 -304 -1184 -304
WIRE -1152 -256 -1152 -304
WIRE -1104 -256 -1152 -256
WIRE -992 -256 -1040 -256
WIRE -1200 -144 -1232 -144
WIRE -1184 -144 -1184 -304
WIRE -1184 -144 -1200 -144
WIRE -1072 -144 -1184 -144
WIRE -800 -144 -992 -144
WIRE -256 -144 -800 -144
WIRE 48 -144 -256 -144
WIRE -800 -64 -800 -144
WIRE -256 -64 -256 -144
WIRE -880 -48 -912 -48
WIRE -848 -48 -880 -48
WIRE -176 -48 -208 -48
WIRE -144 -48 -176 -48
WIRE -544 32 -592 32
WIRE -416 32 -480 32
WIRE 48 32 48 -144
WIRE -1232 64 -1232 -144
WIRE -800 80 -800 16
WIRE -672 80 -672 0
WIRE -672 80 -800 80
WIRE -592 80 -592 32
WIRE -592 80 -672 80
WIRE -416 80 -416 32
WIRE -352 80 -352 0
WIRE -352 80 -416 80
WIRE -256 80 -256 16
WIRE -256 80 -352 80
WIRE -592 128 -592 80
WIRE -544 128 -592 128
WIRE -416 128 -416 80
WIRE -416 128 -464 128
WIRE -800 192 -800 80
WIRE -256 192 -256 80
WIRE -880 208 -912 208
WIRE -848 208 -880 208
WIRE -176 208 -208 208
WIRE -144 208 -176 208
WIRE -1232 320 -1232 144
WIRE -800 320 -800 272
WIRE -800 320 -1232 320
WIRE -688 320 -688 256
WIRE -688 320 -800 320
WIRE -368 320 -368 256
WIRE -368 320 -688 320
WIRE -352 320 -368 320
WIRE -256 320 -256 272
WIRE -256 320 -352 320
WIRE -64 320 -64 128
WIRE -64 320 -256 320
WIRE 48 320 48 96
WIRE 48 320 -64 320
WIRE -352 336 -352 320
WIRE -656 400 -720 400
WIRE -640 400 -656 400
WIRE -1024 416 -1120 416
WIRE -800 416 -896 416
WIRE -688 432 -720 432
WIRE -1120 448 -1120 416
WIRE -688 464 -688 432
WIRE -656 464 -688 464
WIRE -640 464 -656 464
FLAG -352 336 0
FLAG -672 80 VLp
FLAG -352 80 VLn
FLAG -1200 -144 vin
FLAG -880 -48 c1
FLAG -176 208 c1
FLAG -176 -48 c2
FLAG -880 208 c2
FLAG -656 464 c2
FLAG -656 400 c1
FLAG -848 0 0
FLAG -848 256 0
FLAG -208 256 0
FLAG -208 0 0
FLAG -1120 528 0
SYMBOL sw -800 32 M180
SYMATTR InstName S1
SYMATTR Value mysw
SYMBOL sw -256 32 R180
SYMATTR InstName S2
SYMATTR Value mysw
SYMBOL cap -544 48 R270
WINDOW 0 32 32 VTop 2
WINDOW 3 0 32 VBottom 2
SYMATTR InstName C1
SYMATTR Value 10µ ic=8
SYMATTR SpiceLine Rser=1
SYMBOL res -560 144 R270
WINDOW 0 32 56 VTop 2
WINDOW 3 0 56 VBottom 2
SYMATTR InstName R1
SYMATTR Value 100
SYMBOL sw -800 288 M180
SYMATTR InstName S3
SYMATTR Value mysw
SYMBOL sw -256 288 R180
SYMATTR InstName S4
SYMATTR Value mysw
SYMBOL ind -1088 -128 R270
WINDOW 0 32 56 VTop 2
WINDOW 3 5 56 VBottom 2
SYMATTR InstName L1
SYMATTR Value {L1}
SYMATTR SpiceLine Rpar=1Meg
SYMBOL voltage -1232 48 R0
WINDOW 123 0 0 Left 0
WINDOW 39 0 0 Left 0
SYMATTR InstName V1
SYMATTR Value 10
SYMBOL PWM -960 416 R0
SYMATTR InstName U1
SYMATTR SpiceLine VM=1V, fs={freq}
SYMATTR SpiceLine2 Dmin=0.001, Dmax=0.999, Voffset=0
SYMBOL dead_time -768 416 R0
SYMATTR InstName U2
SYMATTR SpiceLine Td=1n
SYMBOL voltage -1120 432 R0
WINDOW 123 0 0 Left 0
WINDOW 39 0 0 Left 0
SYMATTR InstName V2
SYMATTR Value .8
SYMBOL diode -656 0 R180
WINDOW 0 24 64 Left 2
WINDOW 3 24 0 Left 2
SYMATTR InstName D1
SYMATTR Value myD
SYMBOL diode -352 256 R180
WINDOW 0 24 64 Left 2
WINDOW 3 24 0 Left 2
SYMATTR InstName D2
SYMATTR Value myD
SYMBOL diode -336 0 R180
WINDOW 0 24 64 Left 2
WINDOW 3 24 0 Left 2
SYMATTR InstName D3
SYMATTR Value myD
SYMBOL diode -672 256 R180
WINDOW 0 24 64 Left 2
WINDOW 3 24 0 Left 2
SYMATTR InstName D4
SYMATTR Value myD
SYMBOL cap -80 64 R0
SYMATTR InstName C2
SYMATTR Value {C2}
SYMBOL diode 64 96 R180
WINDOW 0 24 64 Left 2
WINDOW 3 24 0 Left 2
SYMATTR InstName D5
SYMATTR Value myZ
SYMBOL diode -864 -336 R90
WINDOW 0 0 32 VBottom 2
WINDOW 3 32 32 VTop 2
SYMATTR InstName D6
SYMATTR Value myD
SYMBOL res -1024 -352 R90
WINDOW 0 0 56 VBottom 2
WINDOW 3 32 56 VTop 2
SYMATTR InstName R2
SYMATTR Value {Rcrit}
SYMBOL cap -1040 -272 R90
WINDOW 0 0 32 VBottom 2
WINDOW 3 32 32 VTop 2
SYMATTR InstName C3
SYMATTR Value 10p
SYMBOL diode -1056 -400 R270
WINDOW 0 32 32 VTop 2
WINDOW 3 0 32 VBottom 2
SYMATTR InstName D7
SYMATTR Value myZ
TEXT -608 384 Left 2 !.model mysw SW(Ron=1u Vt=.5 Vh=1m)
TEXT -600 408 Left 2 !.tran {200*1/freq} startup uic
TEXT -1200 -520 Left 2 !.include /home/erik/Documents/Education/powerelectronics/AdvancedConverterControlTechniques/Libraries/switching.lib
TEXT -592 432 Left 2 !.param freq=500e3 L1=.01m C3={1/((2*3.14*fc)**2*L1)} fc=10*freq Rcrit={sqrt(L1/C2)} C2=1p
TEXT -928 576 Left 2 !.meas TRAN iLavg AVG I(L1) FROM 320u TO 400u
TEXT -928 640 Left 2 !.meas TRAN DTs TRIG V(Vlp)=5.1 TD=80u RISE=1 TARG V(Vlp)=5.1 TD=80u FALL=1
TEXT -928 672 Left 2 !.meas TRAN D PARAM DTs/Ts
TEXT -904 744 Left 2 !.meas TRAN Vc AVG V(VLp)-V(VLn) FROM 320u
TEXT -936 608 Left 2 !.meas TRAN Ts TRIG V(Vlp)=5.1 TD=320u RISE=1 TARG V(Vlp)=5.1 TD=320u RISE=2
TEXT -928 704 Left 2 !.meas TRAN iLpp PP I(L1) FROM 320u TO 322u
TEXT -928 784 Left 2 !.meas TRAN Vg AVG V(vin) FROM 320u
TEXT -936 816 Left 2 !.meas TRAN M PARAM Vc/Vg
TEXT -592 480 Left 2 !.model myD D(Ron=1u Vfwd=.1)
TEXT 136 -48 Left 2 ;fc = 1/(2*pi*sqrt(LC))
TEXT 104 -24 Left 2 ;C = 1/((fc * 2* pi)^2*L)
TEXT -592 456 Left 2 !.model myZ D(Vrev=60)
TEXT -944 856 Left 2 !.meas TRAN Rc PARAM {Rcrit}
