Version 4
SHEET 1 880 836
WIRE -816 48 -1040 48
WIRE -144 48 -816 48
WIRE -1040 128 -1040 48
WIRE -816 128 -816 48
WIRE -144 128 -144 48
WIRE -896 144 -928 144
WIRE -864 144 -896 144
WIRE -64 144 -96 144
WIRE -32 144 -64 144
WIRE -464 224 -480 224
WIRE -432 224 -464 224
WIRE -304 224 -368 224
WIRE -1040 256 -1040 128
WIRE -816 272 -816 208
WIRE -720 272 -816 272
WIRE -624 272 -720 272
WIRE -480 272 -480 224
WIRE -480 272 -544 272
WIRE -304 272 -304 224
WIRE -240 272 -304 272
WIRE -144 272 -144 208
WIRE -144 272 -240 272
WIRE -480 320 -480 272
WIRE -432 320 -480 320
WIRE -304 320 -304 272
WIRE -304 320 -352 320
WIRE -816 384 -816 272
WIRE -144 384 -144 272
WIRE -896 400 -928 400
WIRE -864 400 -896 400
WIRE -64 400 -96 400
WIRE -32 400 -64 400
WIRE -1040 512 -1040 336
WIRE -816 512 -816 464
WIRE -816 512 -1040 512
WIRE -432 512 -816 512
WIRE -144 512 -144 464
WIRE -144 512 -432 512
WIRE -432 528 -432 512
WIRE -384 608 -448 608
WIRE -368 608 -384 608
WIRE -848 624 -944 624
WIRE -640 624 -720 624
WIRE -528 624 -640 624
WIRE -416 640 -448 640
WIRE -944 656 -944 624
WIRE -416 672 -416 640
WIRE -384 672 -416 672
WIRE -368 672 -384 672
FLAG -432 528 0
FLAG -720 272 VLp
FLAG -240 272 VLn
FLAG -1040 128 vin
FLAG -896 144 c1
FLAG -64 400 c1
FLAG -64 144 c2
FLAG -896 400 c2
FLAG -384 672 c2
FLAG -384 608 c1
FLAG -864 192 0
FLAG -864 448 0
FLAG -96 448 0
FLAG -96 192 0
FLAG -944 736 0
FLAG -464 224 vcout
FLAG -640 624 duty
SYMBOL sw -816 224 M180
SYMATTR InstName S1
SYMATTR Value mysw
SYMBOL sw -144 224 R180
SYMATTR InstName S2
SYMATTR Value mysw
SYMBOL cap -432 240 R270
WINDOW 0 32 32 VTop 2
WINDOW 3 0 32 VBottom 2
SYMATTR InstName C1
SYMATTR Value .5µ
SYMBOL res -448 336 R270
WINDOW 0 32 56 VTop 2
WINDOW 3 0 56 VBottom 2
SYMATTR InstName R1
SYMATTR Value 10
SYMBOL sw -816 480 M180
SYMATTR InstName S3
SYMATTR Value mysw
SYMBOL sw -144 480 R180
SYMATTR InstName S4
SYMATTR Value mysw
SYMBOL ind -640 288 R270
WINDOW 0 32 56 VTop 2
WINDOW 3 5 56 VBottom 2
SYMATTR InstName L1
SYMATTR Value .08m
SYMBOL voltage -1040 240 R0
WINDOW 123 0 0 Left 0
WINDOW 39 0 0 Left 0
SYMATTR InstName V1
SYMATTR Value 10
SYMBOL PWM -784 624 R0
SYMATTR InstName U1
SYMATTR SpiceLine VM=1V, fs={freq}
SYMATTR SpiceLine2 Dmin=0.001, Dmax=0.999, Voffset=0
SYMBOL dead_time -496 624 R0
SYMATTR InstName U2
SYMATTR SpiceLine Td={1n/freq}
SYMBOL voltage -944 640 R0
WINDOW 123 0 0 Left 0
WINDOW 39 0 0 Left 0
SYMATTR InstName V2
SYMATTR Value .6
TEXT -1032 -200 Left 2 !.model mysw SW(Ron=1u Roff=1Meg Vt=.5 Vh=0)
TEXT -1032 -152 Left 2 !.tran {21/freq} startup uic
TEXT -1344 -232 Left 2 !.include /home/erik/Documents/Education/powerelectronics/AdvancedConverterControlTechniques/Libraries/switching.lib
TEXT -1032 -176 Left 2 !.param freq=100e3
TEXT -1032 -40 Left 2 !.meas TRAN M PARAM Vc1/V(vin)
TEXT -1032 -128 Left 2 !.meas TRAN Vc1 AVG V(vcout, VLn) FROM 90u TO {90u + 10/freq}
TEXT -1032 -72 Left 2 !.meas TRAN D AVG V(duty)/5 FROM 90u TO {90u+10/freq}
TEXT -816 712 Left 2 ;using switching.lib for PWM and U2
TEXT -1032 -16 Left 2 !.meas TRAN iLrip PP I(L1)/2 FROM 90u TO {90u+2/freq}
TEXT -1032 8 Left 2 !.meas TRAN vCrip PP V(Vcout, VLn)/2 FROM 90u TO {90u+2/freq}
TEXT -1032 -96 Left 2 !.meas TRAN iLavg AVG I(L1) FROM 90u TO {90u + 10/freq}
