Version 4
SHEET 1 1388 740
WIRE 64 48 0 48
WIRE 160 48 64 48
WIRE 304 48 240 48
WIRE 352 48 304 48
WIRE 416 48 352 48
WIRE 560 48 496 48
WIRE 640 48 560 48
WIRE 688 48 640 48
WIRE 560 112 560 48
WIRE 688 112 688 48
WIRE 0 128 0 48
WIRE 144 144 128 144
WIRE 176 144 176 96
WIRE 176 144 144 144
WIRE 224 144 224 96
WIRE 304 144 304 48
WIRE 400 144 384 144
WIRE 432 144 432 96
WIRE 432 144 400 144
WIRE 480 144 480 96
WIRE 0 288 0 208
WIRE 0 288 -16 288
WIRE 192 288 0 288
WIRE 304 288 304 224
WIRE 304 288 192 288
WIRE 560 288 560 176
WIRE 560 288 304 288
WIRE 688 288 688 192
WIRE 688 288 560 288
WIRE 192 336 192 288
WIRE 608 432 544 432
WIRE 624 432 608 432
WIRE 144 448 48 448
WIRE 464 448 272 448
WIRE 48 464 48 448
WIRE 576 464 544 464
WIRE 576 496 576 464
WIRE 608 496 576 496
WIRE 624 496 608 496
WIRE 48 560 48 544
FLAG 144 144 c1
FLAG 400 144 c2
FLAG 608 496 c2
FLAG 608 432 c1
FLAG 48 560 0
FLAG 224 144 0
FLAG 480 144 0
FLAG 192 336 0
FLAG 640 48 Vc
FLAG 64 48 Vg
FLAG 352 48 sw
SYMBOL voltage 0 112 R0
WINDOW 123 0 0 Left 0
WINDOW 39 0 0 Left 0
SYMATTR InstName V1
SYMATTR Value 30
SYMBOL sw 256 48 M270
SYMATTR InstName S1
SYMATTR Value mysw
SYMBOL cap 544 112 R0
WINDOW 3 -52 92 Left 2
SYMATTR Value 12.5µ ic=0
SYMATTR InstName C1
SYMBOL res 704 208 R180
WINDOW 0 36 76 Left 2
WINDOW 3 36 40 Left 2
SYMATTR InstName R1
SYMATTR Value 4
SYMBOL sw 512 48 M270
SYMATTR InstName S3
SYMATTR Value mysw
SYMBOL ind 288 128 R0
SYMATTR InstName L1
SYMATTR Value 180µ
SYMATTR SpiceLine Rser=1m Rpar=100k
SYMBOL PWM 208 448 R0
SYMATTR InstName U1
SYMATTR SpiceLine VM=1V, fs={fs}
SYMATTR SpiceLine2 Dmin=0.001, Dmax=0.999, Voffset=0
SYMBOL dead_time 496 448 R0
SYMATTR InstName U2
SYMATTR SpiceLine Td=0
SYMBOL voltage 48 448 R0
WINDOW 123 0 0 Left 0
WINDOW 39 0 0 Left 0
SYMATTR InstName V2
SYMATTR Value .4
TEXT -16 -120 Left 2 !.model mysw SW(Ron=1u Roff=1Meg Vt=.5 Vh=0)
TEXT -8 -88 Left 2 !.tran {30/fs} uic
TEXT -16 -152 Left 2 !.lib /home/erik/Documents/Education/powerelectronics/AdvancedConverterControlTechniques/Libraries/switching.lib
TEXT -48 -48 Left 2 !.param fs=40k
TEXT 64 632 Left 2 ;PULSE(0 1 0 {1e3/fs} {1e3/fs} {10/fs})
